<?xml version="1.0" encoding="UTF-8"?>
<routes xmlns:xsi="http://www.w3.org/2001/XMLSchema-instance"
        xsi:noNamespaceSchemaLocation="http://sumo.dlr.de/xsd/routes_file.xsd">

  <vType id="car" accel="2.6" decel="4.5" sigma="0.5" length="5.0" minGap="2.5" maxSpeed="40.0" guiShape="passenger"/>

  <route id="r0" edges="E0"/>

  <!-- persistent vehicle so SUMO won't immediately end.
       departPos="0" and departLane="best" keeps it on the net -->
  <vehicle id="dummy" type="car" route="r0" depart="0" departPos="0" departLane="best" color="0,255,0"/>
</routes>
