<?xml version="1.0" encoding="UTF-8"?>
<net version="1.20" xmlns:xsi="http://www.w3.org/2001/XMLSchema-instance"
     xsi:noNamespaceSchemaLocation="http://sumo.dlr.de/xsd/net_file.xsd">

  <!-- extent chosen to cover typical HighD x≈[0..420], y≈[0..30] -->
  <location netOffset="0.00,0.00" convBoundary="0.00,0.00,600.00,30.00" origBoundary="0.00,0.00,600.00,30.00" projParameter="!"/>

  <type id="highway" priority="13" numLanes="4" speed="33.33"/>

  <!-- Single straight edge spanning 0..600 in x, multiple lanes in y -->
  <edge id="E0" from="J0" to="J1" priority="13" type="highway">
    <lane id="E0_0" index="0" speed="33.33" length="600.00" shape="0.00,4.00 600.00,4.00"/>
    <lane id="E0_1" index="1" speed="33.33" length="600.00" shape="0.00,11.00 600.00,11.00"/>
    <lane id="E0_2" index="2" speed="33.33" length="600.00" shape="0.00,18.00 600.00,18.00"/>
    <lane id="E0_3" index="3" speed="33.33" length="600.00" shape="0.00,25.00 600.00,25.00"/>
  </edge>

  <junction id="J0" type="priority" x="0.00" y="15.00" incLanes="" intLanes="" shape="0.00,0.00 0.00,30.00"/>
  <junction id="J1" type="priority" x="600.00" y="15.00" incLanes="E0_0 E0_1 E0_2 E0_3" intLanes="" shape="600.00,0.00 600.00,30.00"/>

</net>
