<?xml version="1.0" encoding="UTF-8"?>
<configuration xmlns:xsi="http://www.w3.org/2001/XMLSchema-instance"
               xsi:noNamespaceSchemaLocation="http://sumo.dlr.de/xsd/sumoConfiguration.xsd">
  <input>
    <net-file value="net.xml"/>
    <route-files value="route.xml"/>
    <additional-files value="vTypeDistributions.add.xml"/>
  </input>
  <time>
    <begin value="0"/>
    <end value="360000"/>
    <step-length value="0.25"/>
  </time>
  <processing>
    <collision.action value="warn"/>
    <collision.stoptime value="10"/>
    <time-to-teleport value="-1"/>
    <max-depart-delay value="600"/>
  </processing>
  <report>
    <verbose value="true"/>
    <no-step-log value="false"/>
  </report>
  <gui_only>
    <start value="true"/>
    <quit-on-end value="false"/>
    <gui-settings-file value="gui-settings.xml"/>
  </gui_only>
</configuration>
